/*--------------------------------*- C++ -*----------------------------------*\
| =========                 |                                                 |
| \\      /  F ield         | OpenFOAM: The Open Source CFD Toolbox           |
|  \\    /   O peration     | Version:  2312                                  |
|   \\  /    A nd           | Website:  www.openfoam.com                      |
|    \\/     M anipulation  |                                                 |
\*---------------------------------------------------------------------------*/
FoamFile
{
    version     2.0;
    format      ascii;
    arch        "LSB;label=32;scalar=64";
    class       polyBoundaryMesh;
    location    "constant/polyMesh";
    object      boundary;
}
// * * * * * * * * * * * * * * * * * * * * * * * * * * * * * * * * * * * * * //

7
(
    inlet
    {
        type            patch;
        nFaces          0;
        startFace       5309;
    }
    outlet
    {
        type            patch;
        nFaces          0;
        startFace       5309;
    }
    wall
    {
        type            wall;
        inGroups        1(wall);
        nFaces          61;
        startFace       5309;
    }
    obstacle
    {
        type            wall;
        inGroups        1(wall);
        nFaces          90;
        startFace       5370;
    }
    frontAndBack
    {
        type            empty;
        inGroups        1(empty);
        nFaces          5430;
        startFace       5460;
    }
    procBoundary1to0
    {
        type            processor;
        inGroups        1(processor);
        nFaces          61;
        startFace       10890;
        matchTolerance  0.0001;
        transform       unknown;
        myProcNo        1;
        neighbProcNo    0;
    }
    procBoundary1to2
    {
        type            processor;
        inGroups        1(processor);
        nFaces          30;
        startFace       10951;
        matchTolerance  0.0001;
        transform       unknown;
        myProcNo        1;
        neighbProcNo    2;
    }
)

// ************************************************************************* //
