/*--------------------------------*- C++ -*----------------------------------*\
| =========                 |                                                 |
| \\      /  F ield         | OpenFOAM: The Open Source CFD Toolbox           |
|  \\    /   O peration     | Version:  2312                                  |
|   \\  /    A nd           | Website:  www.openfoam.com                      |
|    \\/     M anipulation  |                                                 |
\*---------------------------------------------------------------------------*/
FoamFile
{
    version     2.0;
    format      ascii;
    arch        "LSB;label=32;scalar=64";
    class       polyBoundaryMesh;
    location    "constant/polyMesh";
    object      boundary;
}
// * * * * * * * * * * * * * * * * * * * * * * * * * * * * * * * * * * * * * //

7
(
    inlet
    {
        type            patch;
        nFaces          0;
        startFace       5250;
    }
    outlet
    {
        type            patch;
        nFaces          0;
        startFace       5250;
    }
    wall
    {
        type            wall;
        inGroups        1(wall);
        nFaces          179;
        startFace       5250;
    }
    obstacle
    {
        type            wall;
        inGroups        1(wall);
        nFaces          0;
        startFace       5429;
    }
    frontAndBack
    {
        type            empty;
        inGroups        1(empty);
        nFaces          5370;
        startFace       5429;
    }
    procBoundary2to1
    {
        type            processor;
        inGroups        1(processor);
        nFaces          30;
        startFace       10799;
        matchTolerance  0.0001;
        transform       unknown;
        myProcNo        2;
        neighbProcNo    1;
    }
    procBoundary2to3
    {
        type            processor;
        inGroups        1(processor);
        nFaces          31;
        startFace       10829;
        matchTolerance  0.0001;
        transform       unknown;
        myProcNo        2;
        neighbProcNo    3;
    }
)

// ************************************************************************* //
